[TITLE]
Web Simulation Output
[OPTIONS]
FLOW_UNITS CMS
INFILTRATION HORTON
FLOW_ROUTING DYNWAVE
START_DATE 01/01/2024
START_TIME 00:00:00
END_DATE   01/01/2024
END_TIME   06:00:00
REPORT_STEP 00:01:00
WET_STEP    00:01:00
DRY_STEP    00:01:00
ROUTING_STEP 00:00:05
ALLOW_PONDING YES
SKIP_STEADY_STATE NO

[REPORT]
INPUT NO
SUBCATCHMENTS ALL
NODES ALL
LINKS ALL

[RAINGAGES]
;;Name           Format    Interval SCF      Source    
;;-------------- --------- ------ ------ ----------
RG1              INTENSITY 1:00     1.0      TIMESERIES default_rain

[SUBCATCHMENTS]
;;Name           RainGage         Outlet           Area     %Imperv  Width    Slope    CurbLen
;;-------------- ---------------- ---------------- -------- -------- -------- -------- --------
DA17             RG1              FK003            0.0091   0.00     9.54     0.50     0
DA18             RG1              FK003            0.0145   0.00     12.04    0.50     0
DA19             RG1              FK003            0.0145   0.00     12.04    0.50     0
DA20             RG1              FK003            0.0145   0.00     12.04    0.50     0
DA30             RG1              FK003            0.0145   0.00     12.04    0.50     0
DA12             RG1              FK004            0.0145   0.00     12.04    0.50     0
Da13             RG1              FK004            0.0145   0.00     12.04    0.50     0
DA14             RG1              FK004            0.0145   0.00     12.04    0.50     0
DA15             RG1              FK004            0.0145   0.00     12.04    0.50     0
DA16             RG1              FK004            0.0139   0.00     11.79    0.50     0
DA05             RG1              FK007            0.0118   0.00     10.86    0.50     0
DA06             RG1              FK007            0.0106   0.00     10.30    0.50     0
DA30_1           RG1              S01              0.0084   0.00     9.17     0.50     0
DA31             RG1              S01              0.0099   0.00     9.95     0.50     0
DA32             RG1              S01              0.0108   0.00     10.39    0.50     0
DA33             RG1              S01              0.0087   0.00     9.33     0.50     0
DA34             RG1              S01              0.0079   0.00     8.89     0.50     0
DA35             RG1              S01              0.0120   0.00     10.95    0.50     0
DA07             RG1              S02              0.0215   0.00     14.66    0.50     0
DA08             RG1              S02              0.0243   0.00     15.59    0.50     0
DA09             RG1              S02              0.0355   0.00     18.84    0.50     0
DA10             RG1              S02              0.0115   0.00     10.72    0.50     0
DA11             RG1              S02              0.0232   0.00     15.23    0.50     0
DA01             RG1              S03              0.0134   0.00     11.58    0.50     0
DA02             RG1              S04              0.0091   0.00     9.54     0.50     0
DA03             RG1              S04              0.0139   0.00     11.79    0.50     0
DA04             RG1              S04              0.0229   0.00     15.13    0.50     0
DA19_1           RG1              S05              0.0872   0.00     29.53    0.50     0
DA17_1           RG1              S06              0.4172   0.00     64.59    0.50     0
DA18_1           RG1              S11              0.0343   0.00     18.52    0.50     0
DA20_1           RG1              06002            0.0385   0.00     19.62    0.50     0
DA21             RG1              06002            0.0133   0.00     11.53    0.50     0
DA22             RG1              06002            0.0133   0.00     11.53    0.50     0
DA23             RG1              06002            0.0133   0.00     11.53    0.50     0
DA24             RG1              06002            0.0133   0.00     11.53    0.50     0
DA25             RG1              06002            0.0133   0.00     11.53    0.50     0
DA26             RG1              06002            0.0133   0.00     11.53    0.50     0
DA27             RG1              06002            0.0133   0.00     11.53    0.50     0
DA28             RG1              06002            0.0133   0.00     11.53    0.50     0
DA29             RG1              06002            0.0143   0.00     11.96    0.50     0

[SUBAREAS]
;;Subcatchment   N-Imperv   N-Perv     S-Imperv   S-Perv     PctZero    RouteTo    PctRouted
;;-------------- ---------- ---------- ---------- ---------- ---------- ---------- ----------
DA17             0.01       0.1        0.05       0.05       25         OUTLET    
DA18             0.01       0.1        0.05       0.05       25         OUTLET    
DA19             0.01       0.1        0.05       0.05       25         OUTLET    
DA20             0.01       0.1        0.05       0.05       25         OUTLET    
DA30             0.01       0.1        0.05       0.05       25         OUTLET    
DA12             0.01       0.1        0.05       0.05       25         OUTLET    
Da13             0.01       0.1        0.05       0.05       25         OUTLET    
DA14             0.01       0.1        0.05       0.05       25         OUTLET    
DA15             0.01       0.1        0.05       0.05       25         OUTLET    
DA16             0.01       0.1        0.05       0.05       25         OUTLET    
DA05             0.01       0.1        0.05       0.05       25         OUTLET    
DA06             0.01       0.1        0.05       0.05       25         OUTLET    
DA30_1           0.01       0.1        0.05       0.05       25         OUTLET    
DA31             0.01       0.1        0.05       0.05       25         OUTLET    
DA32             0.01       0.1        0.05       0.05       25         OUTLET    
DA33             0.01       0.1        0.05       0.05       25         OUTLET    
DA34             0.01       0.1        0.05       0.05       25         OUTLET    
DA35             0.01       0.1        0.05       0.05       25         OUTLET    
DA07             0.01       0.1        0.05       0.05       25         OUTLET    
DA08             0.01       0.1        0.05       0.05       25         OUTLET    
DA09             0.01       0.1        0.05       0.05       25         OUTLET    
DA10             0.01       0.1        0.05       0.05       25         OUTLET    
DA11             0.01       0.1        0.05       0.05       25         OUTLET    
DA01             0.01       0.1        0.05       0.05       25         OUTLET    
DA02             0.01       0.1        0.05       0.05       25         OUTLET    
DA03             0.01       0.1        0.05       0.05       25         OUTLET    
DA04             0.01       0.1        0.05       0.05       25         OUTLET    
DA19_1           0.01       0.1        0.05       0.05       25         OUTLET    
DA17_1           0.01       0.1        0.05       0.05       25         OUTLET    
DA18_1           0.01       0.1        0.05       0.05       25         OUTLET    
DA20_1           0.01       0.1        0.05       0.05       25         OUTLET    
DA21             0.01       0.1        0.05       0.05       25         OUTLET    
DA22             0.01       0.1        0.05       0.05       25         OUTLET    
DA23             0.01       0.1        0.05       0.05       25         OUTLET    
DA24             0.01       0.1        0.05       0.05       25         OUTLET    
DA25             0.01       0.1        0.05       0.05       25         OUTLET    
DA26             0.01       0.1        0.05       0.05       25         OUTLET    
DA27             0.01       0.1        0.05       0.05       25         OUTLET    
DA28             0.01       0.1        0.05       0.05       25         OUTLET    
DA29             0.01       0.1        0.05       0.05       25         OUTLET    

[INFILTRATION]
;;Subcatchment   MaxRate    MinRate    Decay      DryTime    MaxInfil
;;-------------- ---------- ---------- ---------- ---------- ----------
DA17             3.0        0.5        4.0        7.0        0
DA18             3.0        0.5        4.0        7.0        0
DA19             3.0        0.5        4.0        7.0        0
DA20             3.0        0.5        4.0        7.0        0
DA30             3.0        0.5        4.0        7.0        0
DA12             3.0        0.5        4.0        7.0        0
Da13             3.0        0.5        4.0        7.0        0
DA14             3.0        0.5        4.0        7.0        0
DA15             3.0        0.5        4.0        7.0        0
DA16             3.0        0.5        4.0        7.0        0
DA05             3.0        0.5        4.0        7.0        0
DA06             3.0        0.5        4.0        7.0        0
DA30_1           3.0        0.5        4.0        7.0        0
DA31             3.0        0.5        4.0        7.0        0
DA32             3.0        0.5        4.0        7.0        0
DA33             3.0        0.5        4.0        7.0        0
DA34             3.0        0.5        4.0        7.0        0
DA35             3.0        0.5        4.0        7.0        0
DA07             3.0        0.5        4.0        7.0        0
DA08             3.0        0.5        4.0        7.0        0
DA09             3.0        0.5        4.0        7.0        0
DA10             3.0        0.5        4.0        7.0        0
DA11             3.0        0.5        4.0        7.0        0
DA01             3.0        0.5        4.0        7.0        0
DA02             3.0        0.5        4.0        7.0        0
DA03             3.0        0.5        4.0        7.0        0
DA04             3.0        0.5        4.0        7.0        0
DA19_1           3.0        0.5        4.0        7.0        0
DA17_1           3.0        0.5        4.0        7.0        0
DA18_1           3.0        0.5        4.0        7.0        0
DA20_1           3.0        0.5        4.0        7.0        0
DA21             3.0        0.5        4.0        7.0        0
DA22             3.0        0.5        4.0        7.0        0
DA23             3.0        0.5        4.0        7.0        0
DA24             3.0        0.5        4.0        7.0        0
DA25             3.0        0.5        4.0        7.0        0
DA26             3.0        0.5        4.0        7.0        0
DA27             3.0        0.5        4.0        7.0        0
DA28             3.0        0.5        4.0        7.0        0
DA29             3.0        0.5        4.0        7.0        0

[JUNCTIONS]
;;Name           Elevation  MaxDepth   InitDepth  SurDepth   Aponded
;;-------------- ---------- ---------- ---------- ---------- ----------
FK003            268.543    1.000      0          0.000      0
FK004            268.547    1.000      0          0.000      0
FK005            268.576    1.000      0          0.000      0
FK007            268.295    1.000      0          0.000      0
FK008            268.491    1.090      0          0.000      0
FK009            268.491    1.170      0          0.000      0
FK010            262.800    5.610      0          0.000      0
FK011            262.800    5.570      0          0.000      0
FK013            262.213    4.000      0          0.000      0
F001             267.852    1.450      0          0.000      0
S00              265.254    3.720      0          0.000      0
S00-1            264.792    4.070      0          0.000      0
S01              265.273    3.900      0          0.000      0
S02              267.528    1.720      0          0.000      0
S03              267.601    1.500      0          0.000      0
S04              268.203    0.960      0          0.000      0
S05              267.580    1.700      0          0.000      0
S05-1            266.270    2.420      0          0.000      0
S06              265.451    2.670      0          0.000      0
S07              262.710    5.600      0          0.000      0
S08              263.583    5.180      0          0.000      0
S09              264.066    4.770      0          0.000      0
S10              267.144    2.000      0          0.000      0
S11              267.440    2.000      0          0.000      0
Zisterne-1       266.703    3.000      0          0.000      0
Zisterne-3       266.490    3.000      0          0.000      0
Zisterne_3       265.268    4.000      0          0.000      0
06001            263.590    5.350      0          0.000      0
06002            267.280    2.060      0          0.000      0
06003            267.410    1.850      0          0.000      0
06004            267.950    1.690      0          0.000      0
06005            268.860    4.480      0          0.000      0
06005.2          269.030    3.570      0          0.000      0
06006            270.060    3.110      0          0.000      0
FK019            268.345    2.000      0          0.000      0
GA001            268.113    2.000      0          0.000      0
GA002            268.000    2.000      0          0.000      0
GA003            267.913    2.000      0          0.000      0
BE001            268.900    2.000      0          0.000      0
BE002            268.872    2.000      0          0.000      0
BE003            268.829    2.000      0          0.000      0
BE004            268.796    2.000      0          0.000      0
BE005            268.764    2.000      0          0.000      0
BE006            268.720    2.000      0          0.000      0
BE007            268.690    2.000      0          0.000      0
BE008            268.640    2.000      0          0.000      0
BE010            268.965    2.000      0          0.000      0
BE011            268.993    2.000      0          0.000      0
BE012            268.981    2.000      0          0.000      0
BE013            268.480    2.000      0          0.000      0
BE014            267.309    2.000      0          0.000      0
BE015            268.578    2.000      0          0.000      0
SE016            268.544    2.000      0          0.000      0
SE017            268.476    2.000      0          0.000      0
SE018            268.208    2.000      0          0.000      0
S01AP01          265.260    2.000      0          0.000      0
FK006AP01        268.329    2.000      0          0.000      0
S04AP01          268.060    2.000      0          0.000      0
S04AP02          267.949    2.000      0          0.000      0
S04AP03          267.864    2.000      0          0.000      0
S00AP01          265.240    2.000      0          0.000      0
S10AP01          264.380    2.000      0          0.000      0
06002AP01        264.726    2.000      0          0.000      0

[OUTFALLS]
;;Name           Elevation  Type       Stage Data       Gated    RouteTo
;;-------------- ---------- ---------- ---------------- -------- ----------------
FK012            260.000    FREE

[STORAGE]
;;Name           Elev       MaxDepth   InitDepth  Shape      Curve Name/Params            SurDepth  Fevap
;;-------------- ---------- ---------- ---------- ---------- ---------------------------- ----------------

[COORDINATES]
;;Node           X-Coord    Y-Coord
;;-------------- ---------- ----------
FK003            370680.254 5461047.098
FK004            370631.467 5461024.557
FK005            370615.882 5461021.876
FK007            370578.702 5461004.286
FK008            370654.478 5461034.833
FK009            370655.863 5461035.505
FK010            370735.750 5460996.328
FK011            370756.098 5461005.691
FK013            370694.242 5460959.276
F001             370756.238 5461090.827
S00              370656.806 5460967.121
S00-1            370680.846 5460975.868
S01              370637.903 5460959.633
S02              370624.469 5460953.616
S03              370601.677 5460954.471
S04              370589.758 5460980.313
S05              370762.211 5461088.410
S05-1            370782.377 5461038.171
S06              370770.120 5461003.522
S07              370752.303 5460989.595
S08              370722.334 5460978.378
S09              370707.930 5460986.943
S10              370694.513 5461014.044
S11              370682.121 5461040.275
Zisterne-1       370618.898 5461019.266
Zisterne-3       370692.358 5461050.843
Zisterne_3       370762.545 5461076.405
06001            370693.024 5460962.342
06002            370674.453 5461003.389
06003            370668.843 5461004.982
06004            370655.158 5461035.179
06005            370646.392 5461053.335
06005.2          370650.643 5461057.712
06006            370615.967 5461114.826
FK019            370580.073 5461006.052
GA001            370596.043 5460975.503
GA002            370598.064 5460970.783
GA003            370599.670 5460966.950
BE001            370694.492 5461066.139
BE002            370700.390 5461068.798
BE003            370706.224 5461071.430
BE004            370712.214 5461074.130
BE005            370716.516 5461076.071
BE006            370725.568 5461080.153
BE007            370732.624 5461083.335
BE008            370740.391 5461086.838
BE010            370755.836 5461089.137
BE011            370747.170 5461087.859
BE012            370759.658 5461076.742
BE013            370785.489 5461040.437
BE014            370789.939 5461002.693
BE015            370652.293 5460968.150
SE016            370656.791 5460970.461
SE017            370707.095 5460990.026
SE018            370714.236 5460973.525
S01AP01          370654.003 5460966.010
FK006AP01        370579.889 5461004.847
S04AP01          370592.580 5460974.192
S04AP02          370594.792 5460969.397
S04AP03          370596.472 5460965.755
S00AP01          370657.761 5460967.468
S10AP01          370706.561 5460989.707
06002AP01        370687.304 5460974.984
FK012            370772.508 5460941.762

[CONDUITS]
;;Name           Node1          Node2          Length     Roughness  InOffset   OutOffset  InitFlow   MaxFlow
;;-------------- -------------- -------------- ---------- ---------- ---------- ---------- ---------- ----------
BE008            BE001          FK003          23.780     0.0110     0.000      0.000      0          0
BE009            BE008          F001           16.360     0.0110     0.000      0.000      0          0
FK003            FK003          FK009          27.010     0.0110     0.000      0.000      0          0
FK004            FK004          FK008          25.200     0.0110     0.000      0.000      0          0
FK006            FK005          FK007          41.130     0.0110     0.000      0.000      0          0
FK005            FK005          FK004          15.810     0.0110     0.000      0.000      0          0
FK008            FK007          S04            26.400     0.0110     0.000      0.000      0          0
FK010            FK010          S07            17.870     0.0110     0.000      0.000      0          0
FK011            FK011          S07            16.540     0.0110     0.000      0.000      0          0
S07              F001           S05            6.450      0.0110     0.000      0.000      0          0
S00              S00            S00-1          25.590     0.0110     0.000      0.000      0          0
S01              S01            S00            20.330     0.0110     0.000      0.000      0          0
S02              S02            S01            14.880     0.0110     0.000      0.000      0          0
S03              S03            S02            22.810     0.0110     0.000      0.000      0          0
S04              S04            S03            28.460     0.0110     0.000      0.000      0          0
S05              S05            S05-1          54.150     0.0110     0.000      0.000      0          0
S05-1            S05-1          S06            36.760     0.0110     0.000      0.000      0          0
S06              S06            S07            22.770     0.0110     0.000      0.000      0          0
S12              S07            FK012          52.000     0.0110     0.000      0.000      0          0
S08              S08            S07            32.010     0.0110     0.000      0.000      0          0
S09              S09            S08            16.760     0.0110     0.000      0.000      0          0
S10              S10            S09            30.390     0.0110     0.000      0.000      0          0
S11              S11            S10            29.010     0.0110     0.000      0.000      0          0
06001            06001          FK013          3.530      0.0110     0.000      0.000      0          0
06002            06002          06001          45.200     0.0110     0.000      0.000      0          0
06003            06003          06002          5.830      0.0110     0.000      0.000      0          0
06004            06004          06003          33.160     0.0110     0.000      0.000      0          0
06005            06005          06004          20.180     0.0110     0.000      0.000      0          0
06005.2          06005.2        06005          6.100      0.0110     0.000      0.000      0          0
06006            06006          06005          68.620     0.0110     0.000      0.000      0          0
BE001            BE001          BE002          6.470      0.0110     0.000      0.000      0          0
BE002            BE002          BE003          6.400      0.0110     0.000      0.000      0          0
BE003            BE003          BE004          6.570      0.0110     0.000      0.000      0          0
BE004            BE004          BE005          4.720      0.0110     0.000      0.000      0          0
BE005            BE005          BE006          9.930      0.0110     0.000      0.000      0          0
BE006            BE006          BE007          7.740      0.0110     0.000      0.000      0          0
BE007            BE007          BE008          8.520      0.0110     0.000      0.000      0          0
BE010            BE010          S05            6.550      0.0110     0.000      0.000      0          0
BE011            BE011          S05            15.120     0.0110     0.000      0.000      0          0
BE012            BE012          Zisterne_3     4.430      0.0110     0.000      0.000      0          0
BE013            BE013          S05-1          3.970      0.0110     0.000      0.000      0          0
BE014            BE014          S06            19.920     0.0110     0.000      0.000      0          0
BE015            BE015          S01AP01        4.350      0.0110     0.000      0.000      0          0
FK019            FK019          FK006AP01      1.220      0.0110     0.000      0.000      0          0
GA001            GA001          S04AP01        3.700      0.0110     0.000      0.000      0          0
GA002            GA002          S04AP02        3.550      0.0110     0.000      0.000      0          0
GA003            GA003          S04AP03        3.410      0.0110     0.000      0.000      0          0
SE016            SE016          S00AP01        4.600      0.0110     0.000      0.000      0          0
SE017            SE017          S10AP01        4.250      0.0110     0.000      0.000      0          0
SE018            SE018          S08            10.470     0.0110     0.000      0.000      0          0
S00-1            S00-1          06002AP01      6.520      0.0110     0.000      0.000      0          0

[XSECTIONS]
;;Link           Shape      Geom1      Geom2      Geom3      Geom4      Barrels
;;-------------- ---------- ---------- ---------- ---------- ---------- ----------
BE008            RECT_CLOSED 0.200      0.300      0.000      0.000      1
BE009            RECT_CLOSED 0.200      0.300      0.000      0.000      1
FK003            RECT_CLOSED 0.200      0.300      0.000      0.000      1
FK004            RECT_CLOSED 0.200      0.300      0.000      0.000      1
FK006            RECT_CLOSED 0.125      0.300      0.000      0.000      1
FK005            RECT_CLOSED 0.200      0.300      0.000      0.000      1
FK008            RECT_CLOSED 0.150      0.300      0.000      0.000      1
FK010            RECT_CLOSED 0.200      0.300      0.000      0.000      1
FK011            RECT_CLOSED 0.200      0.300      0.000      0.000      1
S07              RECT_CLOSED 0.200      0.300      0.000      0.000      1
S00              RECT_CLOSED 0.200      0.300      0.000      0.000      1
S01              RECT_CLOSED 0.200      0.300      0.000      0.000      1
S02              RECT_CLOSED 0.200      0.300      0.000      0.000      1
S03              RECT_CLOSED 0.200      0.300      0.000      0.000      1
S04              RECT_CLOSED 0.150      0.300      0.000      0.000      1
S05              RECT_CLOSED 0.250      0.300      0.000      0.000      1
S05-1            RECT_CLOSED 0.250      0.300      0.000      0.000      1
S06              CIRCULAR   0.300      0.000      0.000      0.000      1
S12              CIRCULAR   0.600      0.000      0.000      0.000      1
S08              CIRCULAR   0.300      0.000      0.000      0.000      1
S09              RECT_CLOSED 0.200      0.300      0.000      0.000      1
S10              RECT_CLOSED 0.200      0.300      0.000      0.000      1
S11              RECT_CLOSED 0.200      0.300      0.000      0.000      1
06001            CIRCULAR   0.600      0.000      0.000      0.000      1
06002            CIRCULAR   0.377      0.000      0.000      0.000      1
06003            CIRCULAR   0.470      0.000      0.000      0.000      1
06004            CIRCULAR   0.560      0.000      0.000      0.000      1
06005            CIRCULAR   0.560      0.000      0.000      0.000      1
06005.2          CIRCULAR   0.400      0.000      0.000      0.000      1
06006            CIRCULAR   0.600      0.000      0.000      0.000      1
BE001            RECT_CLOSED 0.150      0.300      0.000      0.000      1
BE002            RECT_CLOSED 0.150      0.300      0.000      0.000      1
BE003            RECT_CLOSED 0.150      0.300      0.000      0.000      1
BE004            RECT_CLOSED 0.150      0.300      0.000      0.000      1
BE005            RECT_CLOSED 0.150      0.300      0.000      0.000      1
BE006            RECT_CLOSED 0.150      0.300      0.000      0.000      1
BE007            RECT_CLOSED 0.150      0.300      0.000      0.000      1
BE010            RECT_CLOSED 0.150      0.300      0.000      0.000      1
BE011            RECT_CLOSED 0.150      0.300      0.000      0.000      1
BE012            RECT_CLOSED 0.150      0.300      0.000      0.000      1
BE013            RECT_CLOSED 0.150      0.300      0.000      0.000      1
BE014            RECT_CLOSED 0.150      0.300      0.000      0.000      1
BE015            RECT_CLOSED 0.150      0.300      0.000      0.000      1
FK019            RECT_CLOSED 0.150      0.300      0.000      0.000      1
GA001            RECT_CLOSED 0.150      0.300      0.000      0.000      1
GA002            RECT_CLOSED 0.150      0.300      0.000      0.000      1
GA003            RECT_CLOSED 0.150      0.300      0.000      0.000      1
SE016            RECT_CLOSED 0.150      0.300      0.000      0.000      1
SE017            RECT_CLOSED 0.150      0.300      0.000      0.000      1
SE018            RECT_CLOSED 0.150      0.300      0.000      0.000      1
S00-1            RECT_CLOSED 0.200      0.300      0.000      0.000      1

[TIMESERIES]
;;Name           Date       Time       Value     
;;-------------- ---------- ---------- ----------
default_rain     01/01/2024 00:00      0.0
default_rain     01/01/2024 01:00      10.0
default_rain     01/01/2024 02:00      0.0
